
     RDKit          3D

 57 59  0  0  0  0  0  0  0  0999 V2000
   -0.0224   -4.0686    0.5615 C   0  0  0  0  0  0  0  0  0  0  0  0
   -0.4827   -2.7876   -0.1425 C   0  0  0  0  0  0  0  0  0  0  0  0
   -1.9844   -2.8663   -0.4098 C   0  0  0  0  0  0  0  0  0  0  0  0
   -0.0607   -1.5604    0.6963 C   0  0  0  0  0  0  0  0  0  0  0  0
   -0.3514   -0.1934    0.0422 C   0  0  0  0  0  0  0  0  0  0  0  0
    0.5298    0.9314    0.6427 C   0  0  0  0  0  0  0  0  0  0  0  0
    1.9258    0.8275    0.2696 N   0  0  0  0  0  0  0  0  0  0  0  0
    2.9107    0.3872    1.1257 C   0  0  0  0  0  0  0  0  0  0  0  0
    2.6744    0.0311    2.2769 O   0  0  0  0  0  0  0  0  0  0  0  0
    4.2345    0.3753    0.5412 C   0  0  0  0  0  0  0  0  0  0  0  0
    5.4562    0.0047    1.0713 C   0  0  0  0  0  0  0  0  0  0  0  0
    6.4242    0.1920    0.0518 C   0  0  0  0  0  0  0  0  0  0  0  0
    7.8135    0.0097   -0.0620 C   0  0  0  0  0  0  0  0  0  0  0  0
    8.4349    0.3190   -1.2809 C   0  0  0  0  0  0  0  0  0  0  0  0
    7.6955    0.7989   -2.3655 C   0  0  0  0  0  0  0  0  0  0  0  0
    6.3125    0.9865   -2.2717 C   0  0  0  0  0  0  0  0  0  0  0  0
    5.7247    0.6708   -1.0491 C   0  0  0  0  0  0  0  0  0  0  0  0
    4.3997    0.7829   -0.7585 O   0  0  0  0  0  0  0  0  0  0  0  0
   -1.7646    0.1589    0.1927 N   0  0  0  0  0  0  0  0  0  0  0  0
   -2.3682    1.0800   -0.6343 C   0  0  0  0  0  0  0  0  0  0  0  0
   -1.7931    1.5872   -1.5938 O   0  0  0  0  0  0  0  0  0  0  0  0
   -3.8021    1.4514   -0.2723 C   0  0  0  0  0  0  0  0  0  0  0  0
   -3.8653    2.1507    1.0887 C   0  0  0  0  0  0  0  0  0  0  0  0
   -5.2739    2.6634    1.3949 C   0  0  0  0  0  0  0  0  0  0  0  0
   -6.3836    1.7703    0.8364 C   0  0  0  0  0  0  0  0  0  0  0  0
   -5.9200    0.3325    0.6435 C   0  0  0  0  0  0  0  0  0  0  0  0
   -4.7518    0.2437   -0.3415 C   0  0  0  0  0  0  0  0  0  0  0  0
    1.0611   -4.0589    0.7213 H   0  0  0  0  0  0  0  0  0  0  0  0
   -0.2598   -4.9519   -0.0410 H   0  0  0  0  0  0  0  0  0  0  0  0
   -0.5088   -4.1821    1.5364 H   0  0  0  0  0  0  0  0  0  0  0  0
    0.0324   -2.7388   -1.1105 H   0  0  0  0  0  0  0  0  0  0  0  0
   -2.5599   -2.7826    0.5180 H   0  0  0  0  0  0  0  0  0  0  0  0
   -2.2471   -3.8185   -0.8839 H   0  0  0  0  0  0  0  0  0  0  0  0
   -2.3055   -2.0759   -1.0937 H   0  0  0  0  0  0  0  0  0  0  0  0
   -0.5322   -1.6079    1.6869 H   0  0  0  0  0  0  0  0  0  0  0  0
    1.0179   -1.6539    0.8648 H   0  0  0  0  0  0  0  0  0  0  0  0
   -0.1336   -0.2574   -1.0319 H   0  0  0  0  0  0  0  0  0  0  0  0
    0.1983    1.9101    0.2782 H   0  0  0  0  0  0  0  0  0  0  0  0
    0.4304    0.9476    1.7343 H   0  0  0  0  0  0  0  0  0  0  0  0
    2.2100    1.1072   -0.6638 H   0  0  0  0  0  0  0  0  0  0  0  0
    5.6169   -0.3569    2.0777 H   0  0  0  0  0  0  0  0  0  0  0  0
    8.3978   -0.3630    0.7742 H   0  0  0  0  0  0  0  0  0  0  0  0
    9.5098    0.1825   -1.3820 H   0  0  0  0  0  0  0  0  0  0  0  0
    8.2031    1.0311   -3.2996 H   0  0  0  0  0  0  0  0  0  0  0  0
    5.7250    1.3577   -3.1024 H   0  0  0  0  0  0  0  0  0  0  0  0
   -2.2285   -0.0981    1.0544 H   0  0  0  0  0  0  0  0  0  0  0  0
   -4.1284    2.1769   -1.0314 H   0  0  0  0  0  0  0  0  0  0  0  0
   -3.5620    1.4577    1.8840 H   0  0  0  0  0  0  0  0  0  0  0  0
   -3.1536    2.9843    1.1299 H   0  0  0  0  0  0  0  0  0  0  0  0
   -5.3977    3.6746    0.9885 H   0  0  0  0  0  0  0  0  0  0  0  0
   -5.3848    2.7565    2.4821 H   0  0  0  0  0  0  0  0  0  0  0  0
   -7.2526    1.8033    1.5034 H   0  0  0  0  0  0  0  0  0  0  0  0
   -6.7181    2.1706   -0.1291 H   0  0  0  0  0  0  0  0  0  0  0  0
   -6.7494   -0.2874    0.2847 H   0  0  0  0  0  0  0  0  0  0  0  0
   -5.6140   -0.0830    1.6118 H   0  0  0  0  0  0  0  0  0  0  0  0
   -5.1493    0.1823   -1.3632 H   0  0  0  0  0  0  0  0  0  0  0  0
   -4.2297   -0.7049   -0.1769 H   0  0  0  0  0  0  0  0  0  0  0  0
  1  2  1  0
  2  3  1  0
  2  4  1  0
  4  5  1  0
  5  6  1  0
  6  7  1  0
  7  8  1  0
  8  9  2  0
  8 10  1  0
 10 11  2  0
 11 12  1  0
 12 13  2  0
 13 14  1  0
 14 15  2  0
 15 16  1  0
 16 17  2  0
 17 18  1  0
  5 19  1  0
 19 20  1  0
 20 21  2  0
 20 22  1  0
 22 23  1  0
 23 24  1  0
 24 25  1  0
 25 26  1  0
 26 27  1  0
 18 10  1  0
 27 22  1  0
 17 12  1  0
  1 28  1  0
  1 29  1  0
  1 30  1  0
  2 31  1  0
  3 32  1  0
  3 33  1  0
  3 34  1  0
  4 35  1  0
  4 36  1  0
  5 37  1  0
  6 38  1  0
  6 39  1  0
  7 40  1  0
 11 41  1  0
 13 42  1  0
 14 43  1  0
 15 44  1  0
 16 45  1  0
 19 46  1  0
 22 47  1  0
 23 48  1  0
 23 49  1  0
 24 50  1  0
 24 51  1  0
 25 52  1  0
 25 53  1  0
 26 54  1  0
 26 55  1  0
 27 56  1  0
 27 57  1  0
M  END
$$$$
