
     RDKit          3D

 84 84  0  0  0  0  0  0  0  0999 V2000
    1.6496    6.8057    0.8969 O   0  0  0  0  0  0  0  0  0  0  0  0
    1.4345    5.5979    0.7933 C   0  0  0  0  0  0  0  0  0  0  0  0
    0.0833    5.0090    1.1289 C   0  0  0  0  0  0  0  0  0  0  0  0
   -0.8135    4.9737   -0.1094 C   0  0  0  0  0  0  0  0  0  0  0  0
   -2.2922    4.9071    0.2781 C   0  0  0  0  0  0  0  0  0  0  0  0
   -3.2311    4.9483   -0.9323 C   0  0  0  0  0  0  0  0  0  0  0  0
   -3.1250    3.7623   -1.8966 C   0  0  0  0  0  0  0  0  0  0  0  0
   -3.3660    2.3853   -1.2717 C   0  0  0  0  0  0  0  0  0  0  0  0
   -4.7699    2.2309   -0.6761 C   0  0  0  0  0  0  0  0  0  0  0  0
   -5.0216    0.8073   -0.1554 C   0  0  0  0  0  0  0  0  0  0  0  0
   -6.5032    0.6342    0.0742 C   0  0  0  0  0  0  0  0  0  0  0  0
   -7.2337    0.0826   -0.7422 O   0  0  0  0  0  0  0  0  0  0  0  0
   -6.9844    1.1680    1.2197 O   0  0  0  0  0  0  0  0  0  0  0  0
   -4.2402    0.5489    1.1132 C   0  0  0  0  0  0  0  0  0  0  0  0
   -4.3820    1.2908    2.0904 O   0  0  0  0  0  0  0  0  0  0  0  0
   -3.4042   -0.5277    1.2104 N   0  0  0  0  0  0  0  0  0  0  0  0
   -3.5261   -1.7568    0.4424 C   0  0  0  0  0  0  0  0  0  0  0  0
   -2.3486   -2.7023    0.6804 C   0  0  0  0  0  0  0  0  0  0  0  0
   -2.6168   -4.0582    0.0227 C   0  0  0  0  0  0  0  0  0  0  0  0
   -1.4452   -5.0373    0.1184 C   0  0  0  0  0  0  0  0  0  0  0  0
   -0.2401   -4.6054   -0.7225 C   0  0  0  0  0  0  0  0  0  0  0  0
    0.7846   -5.7265   -0.8901 C   0  0  0  0  0  0  0  0  0  0  0  0
    1.4150   -6.0971    0.3627 N   0  0  0  0  0  0  0  0  0  0  0  0
    2.5007   -5.5341    0.9697 C   0  0  0  0  0  0  0  0  0  0  0  0
    2.8358   -5.9373    2.0815 O   0  0  0  0  0  0  0  0  0  0  0  0
    3.2264   -4.4204    0.2380 C   0  0  0  0  0  0  0  0  0  0  0  0
    4.5377   -4.0375    0.9298 C   0  0  0  0  0  0  0  0  0  0  0  0
    5.3389   -3.0085    0.1307 C   0  0  0  0  0  0  0  0  0  0  0  0
    4.8021   -1.5804    0.2762 C   0  0  0  0  0  0  0  0  0  0  0  0
    5.5253   -0.6292   -0.6808 C   0  0  0  0  0  0  0  0  0  0  0  0
    5.3517    0.8517   -0.3422 C   0  0  0  0  0  0  0  0  0  0  0  0
    3.8958    1.3179   -0.2360 C   0  0  0  0  0  0  0  0  0  0  0  0
    3.8379    2.8411   -0.0970 C   0  0  0  0  0  0  0  0  0  0  0  0
    2.4260    3.3461    0.1847 C   0  0  0  0  0  0  0  0  0  0  0  0
    2.4249    4.7902    0.3275 N   0  0  0  0  0  0  0  0  0  0  0  0
    0.1868    4.0084    1.5587 H   0  0  0  0  0  0  0  0  0  0  0  0
   -0.3533    5.6399    1.9162 H   0  0  0  0  0  0  0  0  0  0  0  0
   -0.5393    4.1121   -0.7291 H   0  0  0  0  0  0  0  0  0  0  0  0
   -0.6373    5.8605   -0.7313 H   0  0  0  0  0  0  0  0  0  0  0  0
   -2.4878    4.0164    0.8883 H   0  0  0  0  0  0  0  0  0  0  0  0
   -2.5322    5.7698    0.9121 H   0  0  0  0  0  0  0  0  0  0  0  0
   -4.2624    5.0353   -0.5694 H   0  0  0  0  0  0  0  0  0  0  0  0
   -3.0418    5.8712   -1.4982 H   0  0  0  0  0  0  0  0  0  0  0  0
   -2.1351    3.7655   -2.3678 H   0  0  0  0  0  0  0  0  0  0  0  0
   -3.8436    3.9152   -2.7123 H   0  0  0  0  0  0  0  0  0  0  0  0
   -3.2301    1.6323   -2.0598 H   0  0  0  0  0  0  0  0  0  0  0  0
   -2.6008    2.1759   -0.5159 H   0  0  0  0  0  0  0  0  0  0  0  0
   -5.5124    2.4732   -1.4483 H   0  0  0  0  0  0  0  0  0  0  0  0
   -4.9175    2.9561    0.1337 H   0  0  0  0  0  0  0  0  0  0  0  0
   -4.7390    0.0990   -0.9389 H   0  0  0  0  0  0  0  0  0  0  0  0
   -6.2979    1.5554    1.8147 H   0  0  0  0  0  0  0  0  0  0  0  0
   -3.0437   -0.6252    2.1556 H   0  0  0  0  0  0  0  0  0  0  0  0
   -4.4747   -2.2221    0.7341 H   0  0  0  0  0  0  0  0  0  0  0  0
   -3.5810   -1.5151   -0.6221 H   0  0  0  0  0  0  0  0  0  0  0  0
   -2.1879   -2.8432    1.7572 H   0  0  0  0  0  0  0  0  0  0  0  0
   -1.4367   -2.2420    0.2804 H   0  0  0  0  0  0  0  0  0  0  0  0
   -2.8865   -3.9157   -1.0303 H   0  0  0  0  0  0  0  0  0  0  0  0
   -3.4856   -4.5147    0.5109 H   0  0  0  0  0  0  0  0  0  0  0  0
   -1.1464   -5.1519    1.1665 H   0  0  0  0  0  0  0  0  0  0  0  0
   -1.7945   -6.0186   -0.2244 H   0  0  0  0  0  0  0  0  0  0  0  0
   -0.5798   -4.2937   -1.7147 H   0  0  0  0  0  0  0  0  0  0  0  0
    0.2352   -3.7371   -0.2575 H   0  0  0  0  0  0  0  0  0  0  0  0
    1.5543   -5.4198   -1.6028 H   0  0  0  0  0  0  0  0  0  0  0  0
    0.3116   -6.6290   -1.2941 H   0  0  0  0  0  0  0  0  0  0  0  0
    0.9770   -6.8174    0.9258 H   0  0  0  0  0  0  0  0  0  0  0  0
    3.4508   -4.7548   -0.7776 H   0  0  0  0  0  0  0  0  0  0  0  0
    2.5569   -3.5588    0.1848 H   0  0  0  0  0  0  0  0  0  0  0  0
    5.1518   -4.9403    1.0442 H   0  0  0  0  0  0  0  0  0  0  0  0
    4.3433   -3.6685    1.9439 H   0  0  0  0  0  0  0  0  0  0  0  0
    6.3763   -3.0228    0.4939 H   0  0  0  0  0  0  0  0  0  0  0  0
    5.3709   -3.2977   -0.9267 H   0  0  0  0  0  0  0  0  0  0  0  0
    4.9445   -1.2503    1.3121 H   0  0  0  0  0  0  0  0  0  0  0  0
    3.7268   -1.5529    0.0695 H   0  0  0  0  0  0  0  0  0  0  0  0
    5.1696   -0.8090   -1.7019 H   0  0  0  0  0  0  0  0  0  0  0  0
    6.6013   -0.8487   -0.6790 H   0  0  0  0  0  0  0  0  0  0  0  0
    5.8697    1.0629    0.6000 H   0  0  0  0  0  0  0  0  0  0  0  0
    5.8650    1.4368   -1.1145 H   0  0  0  0  0  0  0  0  0  0  0  0
    3.3301    1.0042   -1.1222 H   0  0  0  0  0  0  0  0  0  0  0  0
    3.4232    0.8561    0.6389 H   0  0  0  0  0  0  0  0  0  0  0  0
    4.2217    3.3046   -1.0167 H   0  0  0  0  0  0  0  0  0  0  0  0
    4.5019    3.1660    0.7153 H   0  0  0  0  0  0  0  0  0  0  0  0
    2.0369    2.9027    1.1072 H   0  0  0  0  0  0  0  0  0  0  0  0
    1.7475    3.0856   -0.6322 H   0  0  0  0  0  0  0  0  0  0  0  0
    3.2674    5.3044    0.0874 H   0  0  0  0  0  0  0  0  0  0  0  0
  1  2  2  0
  2  3  1  0
  3  4  1  0
  4  5  1  0
  5  6  1  0
  6  7  1  0
  7  8  1  0
  8  9  1  0
  9 10  1  0
 10 11  1  0
 11 12  2  0
 11 13  1  0
 10 14  1  0
 14 15  2  0
 14 16  1  0
 16 17  1  0
 17 18  1  0
 18 19  1  0
 19 20  1  0
 20 21  1  0
 21 22  1  0
 22 23  1  0
 23 24  1  0
 24 25  2  0
 24 26  1  0
 26 27  1  0
 27 28  1  0
 28 29  1  0
 29 30  1  0
 30 31  1  0
 31 32  1  0
 32 33  1  0
 33 34  1  0
 34 35  1  0
 35  2  1  0
  3 36  1  0
  3 37  1  0
  4 38  1  0
  4 39  1  0
  5 40  1  0
  5 41  1  0
  6 42  1  0
  6 43  1  0
  7 44  1  0
  7 45  1  0
  8 46  1  0
  8 47  1  0
  9 48  1  0
  9 49  1  0
 10 50  1  0
 13 51  1  0
 16 52  1  0
 17 53  1  0
 17 54  1  0
 18 55  1  0
 18 56  1  0
 19 57  1  0
 19 58  1  0
 20 59  1  0
 20 60  1  0
 21 61  1  0
 21 62  1  0
 22 63  1  0
 22 64  1  0
 23 65  1  0
 26 66  1  0
 26 67  1  0
 27 68  1  0
 27 69  1  0
 28 70  1  0
 28 71  1  0
 29 72  1  0
 29 73  1  0
 30 74  1  0
 30 75  1  0
 31 76  1  0
 31 77  1  0
 32 78  1  0
 32 79  1  0
 33 80  1  0
 33 81  1  0
 34 82  1  0
 34 83  1  0
 35 84  1  0
M  END
$$$$
