
     RDKit          3D

 67 69  0  0  0  0  0  0  0  0999 V2000
   -5.9147    1.9118   -2.8468 C   0  0  0  0  0  0  0  0  0  0  0  0
   -6.1061    1.5934   -1.3891 C   0  0  0  0  0  0  0  0  0  0  0  0
   -5.9345    2.4241   -0.5019 O   0  0  0  0  0  0  0  0  0  0  0  0
   -6.4827    0.2991   -1.1267 N   0  0  0  0  0  0  0  0  0  0  0  0
   -6.7813   -0.1672    0.2310 C   0  0  0  0  0  0  0  0  0  0  0  0
   -7.7744   -1.3228    0.1747 C   0  0  0  0  0  0  0  0  0  0  0  0
   -5.4901   -0.5767    0.9784 C   0  0  0  0  0  0  0  0  0  0  0  0
   -5.3509   -1.6603    1.5393 O   0  0  0  0  0  0  0  0  0  0  0  0
   -4.5245    0.4057    1.0095 N   0  0  0  0  0  0  0  0  0  0  0  0
   -3.2372    0.2665    1.6803 C   0  0  0  0  0  0  0  0  0  0  0  0
   -2.0977   -0.0914    0.7029 C   0  0  0  0  0  0  0  0  0  0  0  0
   -2.3135    0.6609   -0.5147 O   0  0  0  0  0  0  0  0  0  0  0  0
   -0.7457    0.3505    1.2406 C   0  0  0  0  0  0  0  0  0  0  0  0
    0.1571   -0.5786    0.4656 C   0  0  0  0  0  0  0  0  0  0  0  0
    1.5020   -0.2783    0.2878 N   0  0  0  0  0  0  0  0  0  0  0  0
    2.3771   -1.4212   -0.0416 C   0  0  0  0  0  0  0  0  0  0  0  0
    3.8461   -1.0468    0.1331 C   0  0  0  0  0  0  0  0  0  0  0  0
    4.1881    0.1720   -0.7315 C   0  0  0  0  0  0  0  0  0  0  0  0
    5.6606    0.5312   -0.6435 C   0  0  0  0  0  0  0  0  0  0  0  0
    6.4882    0.3239   -1.7574 C   0  0  0  0  0  0  0  0  0  0  0  0
    7.8465    0.6481   -1.7091 C   0  0  0  0  0  0  0  0  0  0  0  0
    8.4084    1.1920   -0.5459 C   0  0  0  0  0  0  0  0  0  0  0  0
    9.8748    1.5423   -0.4796 C   0  0  0  0  0  0  0  0  0  0  0  0
   10.0898    2.8088   -0.0274 F   0  0  0  0  0  0  0  0  0  0  0  0
   10.5084    1.4670   -1.6839 F   0  0  0  0  0  0  0  0  0  0  0  0
   10.5711    0.7222    0.3591 F   0  0  0  0  0  0  0  0  0  0  0  0
    7.5901    1.3759    0.5763 C   0  0  0  0  0  0  0  0  0  0  0  0
    6.2326    1.0472    0.5289 C   0  0  0  0  0  0  0  0  0  0  0  0
    3.2623    1.3367   -0.3573 C   0  0  0  0  0  0  0  0  0  0  0  0
    1.7993    0.9270   -0.5101 C   0  0  0  0  0  0  0  0  0  0  0  0
   -0.4012   -1.6701    0.0318 N   0  0  0  0  0  0  0  0  0  0  0  0
   -1.8387   -1.6043    0.4217 C   0  0  0  0  0  0  0  0  0  0  0  0
   -2.6417   -2.1678   -0.7562 C   0  0  0  0  0  0  0  0  0  0  0  0
   -1.9920   -2.5303    1.6402 C   0  0  0  0  0  0  0  0  0  0  0  0
   -5.6461    1.0172   -3.4146 H   0  0  0  0  0  0  0  0  0  0  0  0
   -6.8390    2.3371   -3.2451 H   0  0  0  0  0  0  0  0  0  0  0  0
   -5.1026    2.6375   -2.9522 H   0  0  0  0  0  0  0  0  0  0  0  0
   -6.4156   -0.3929   -1.8644 H   0  0  0  0  0  0  0  0  0  0  0  0
   -7.2311    0.6591    0.7949 H   0  0  0  0  0  0  0  0  0  0  0  0
   -8.0471   -1.6576    1.1816 H   0  0  0  0  0  0  0  0  0  0  0  0
   -8.6901   -1.0242   -0.3449 H   0  0  0  0  0  0  0  0  0  0  0  0
   -7.3517   -2.1806   -0.3616 H   0  0  0  0  0  0  0  0  0  0  0  0
   -4.7819    1.3319    0.6633 H   0  0  0  0  0  0  0  0  0  0  0  0
   -3.0469    1.2527    2.1158 H   0  0  0  0  0  0  0  0  0  0  0  0
   -3.3205   -0.4357    2.5131 H   0  0  0  0  0  0  0  0  0  0  0  0
   -3.2131    0.4203   -0.8024 H   0  0  0  0  0  0  0  0  0  0  0  0
   -0.5281    1.4020    1.0439 H   0  0  0  0  0  0  0  0  0  0  0  0
   -0.6190    0.1404    2.3073 H   0  0  0  0  0  0  0  0  0  0  0  0
    2.1920   -1.7558   -1.0715 H   0  0  0  0  0  0  0  0  0  0  0  0
    2.1583   -2.2658    0.6235 H   0  0  0  0  0  0  0  0  0  0  0  0
    4.4770   -1.9031   -0.1386 H   0  0  0  0  0  0  0  0  0  0  0  0
    4.0430   -0.8320    1.1926 H   0  0  0  0  0  0  0  0  0  0  0  0
    3.9694   -0.0896   -1.7774 H   0  0  0  0  0  0  0  0  0  0  0  0
    6.0799   -0.0856   -2.6792 H   0  0  0  0  0  0  0  0  0  0  0  0
    8.4650    0.4774   -2.5896 H   0  0  0  0  0  0  0  0  0  0  0  0
    8.0061    1.7846    1.4959 H   0  0  0  0  0  0  0  0  0  0  0  0
    5.6219    1.2022    1.4173 H   0  0  0  0  0  0  0  0  0  0  0  0
    3.4660    2.2071   -0.9950 H   0  0  0  0  0  0  0  0  0  0  0  0
    3.4345    1.6597    0.6785 H   0  0  0  0  0  0  0  0  0  0  0  0
    1.5649    0.7320   -1.5645 H   0  0  0  0  0  0  0  0  0  0  0  0
    1.1794    1.7713   -0.1923 H   0  0  0  0  0  0  0  0  0  0  0  0
   -2.4319   -1.6254   -1.6849 H   0  0  0  0  0  0  0  0  0  0  0  0
   -2.3798   -3.2169   -0.9400 H   0  0  0  0  0  0  0  0  0  0  0  0
   -3.7173   -2.1225   -0.5721 H   0  0  0  0  0  0  0  0  0  0  0  0
   -3.0380   -2.6506    1.9320 H   0  0  0  0  0  0  0  0  0  0  0  0
   -1.5980   -3.5305    1.4215 H   0  0  0  0  0  0  0  0  0  0  0  0
   -1.4353   -2.1542    2.5067 H   0  0  0  0  0  0  0  0  0  0  0  0
  1  2  1  0
  2  3  2  0
  2  4  1  0
  4  5  1  0
  5  6  1  0
  5  7  1  0
  7  8  2  0
  7  9  1  0
  9 10  1  0
 10 11  1  0
 11 12  1  0
 11 13  1  0
 13 14  1  0
 14 15  1  0
 15 16  1  0
 16 17  1  0
 17 18  1  0
 18 19  1  0
 19 20  2  0
 20 21  1  0
 21 22  2  0
 22 23  1  0
 23 24  1  0
 23 25  1  0
 23 26  1  0
 22 27  1  0
 27 28  2  0
 18 29  1  0
 29 30  1  0
 14 31  2  0
 31 32  1  0
 32 33  1  0
 32 34  1  0
 32 11  1  0
 30 15  1  0
 28 19  1  0
  1 35  1  0
  1 36  1  0
  1 37  1  0
  4 38  1  0
  5 39  1  0
  6 40  1  0
  6 41  1  0
  6 42  1  0
  9 43  1  0
 10 44  1  0
 10 45  1  0
 12 46  1  0
 13 47  1  0
 13 48  1  0
 16 49  1  0
 16 50  1  0
 17 51  1  0
 17 52  1  0
 18 53  1  0
 20 54  1  0
 21 55  1  0
 27 56  1  0
 28 57  1  0
 29 58  1  0
 29 59  1  0
 30 60  1  0
 30 61  1  0
 33 62  1  0
 33 63  1  0
 33 64  1  0
 34 65  1  0
 34 66  1  0
 34 67  1  0
M  END
$$$$
