
     RDKit          3D

 75 78  0  0  0  0  0  0  0  0999 V2000
    5.0015    2.8412   -0.2375 O   0  0  0  0  0  0  0  0  0  0  0  0
    4.4474    1.7962    0.0711 C   0  0  0  0  0  0  0  0  0  0  0  0
    3.0866    1.6011    0.0581 N   0  0  0  0  0  0  0  0  0  0  0  0
    2.2291    2.6582   -0.4436 C   0  0  0  0  0  0  0  0  0  0  0  0
    0.7404    2.4368   -0.1526 C   0  0  0  0  0  0  0  0  0  0  0  0
    0.1391    1.2632   -0.9498 C   0  0  0  0  0  0  0  0  0  0  0  0
   -1.0425    0.5881   -0.2336 C   0  0  0  0  0  0  0  0  0  0  0  0
   -1.8383    1.5925    0.4771 N   0  0  0  0  0  0  0  0  0  0  0  0
   -3.1356    1.0691    0.9743 C   0  0  0  0  0  0  0  0  0  0  0  0
   -4.2322    0.9436   -0.1258 C   0  0  0  0  0  0  0  0  0  0  0  0
   -3.8684    1.8245   -1.2064 O   0  0  0  0  0  0  0  0  0  0  0  0
   -4.5010   -0.4893   -0.6745 C   0  0  0  0  0  0  0  0  0  0  0  0
   -5.1813   -1.4329    0.3565 C   0  0  0  0  0  0  0  0  0  0  0  0
   -4.2879   -2.0435    1.4110 C   0  0  0  0  0  0  0  0  0  0  0  0
   -4.6056   -1.9050    2.7707 C   0  0  0  0  0  0  0  0  0  0  0  0
   -3.7953   -2.4794    3.7510 C   0  0  0  0  0  0  0  0  0  0  0  0
   -2.6647   -3.2069    3.3851 C   0  0  0  0  0  0  0  0  0  0  0  0
   -2.3496   -3.3692    2.0363 C   0  0  0  0  0  0  0  0  0  0  0  0
   -3.1611   -2.7986    1.0539 C   0  0  0  0  0  0  0  0  0  0  0  0
   -5.3867   -0.4759   -1.9293 C   0  0  0  0  0  0  0  0  0  0  0  0
   -6.6212    0.1931   -1.9596 C   0  0  0  0  0  0  0  0  0  0  0  0
   -7.4164    0.1714   -3.1083 C   0  0  0  0  0  0  0  0  0  0  0  0
   -6.9938   -0.5248   -4.2384 C   0  0  0  0  0  0  0  0  0  0  0  0
   -5.7765   -1.1999   -4.2220 C   0  0  0  0  0  0  0  0  0  0  0  0
   -4.9773   -1.1774   -3.0757 C   0  0  0  0  0  0  0  0  0  0  0  0
   -1.0687    2.1763    1.5957 C   0  0  0  0  0  0  0  0  0  0  0  0
    0.4437    2.2673    1.3386 C   0  0  0  0  0  0  0  0  0  0  0  0
    5.1003    0.6577    0.4729 N   0  0  0  0  0  0  0  0  0  0  0  0
    6.5553    0.6278    0.6011 C   0  0  0  0  0  0  0  0  0  0  0  0
    7.0051   -0.5164    1.5277 C   0  0  0  0  0  0  0  0  0  0  0  0
    7.3206   -1.7919    0.7535 C   0  0  0  0  0  0  0  0  0  0  0  0
    8.4529   -1.5799   -0.2543 C   0  0  0  0  0  0  0  0  0  0  0  0
    8.5570   -0.1396   -0.7634 C   0  0  0  0  0  0  0  0  0  0  0  0
    7.1964    0.5421   -0.7989 C   0  0  0  0  0  0  0  0  0  0  0  0
    2.8327    0.6557   -0.1876 H   0  0  0  0  0  0  0  0  0  0  0  0
    2.5547    3.6032    0.0093 H   0  0  0  0  0  0  0  0  0  0  0  0
    2.4008    2.7417   -1.5235 H   0  0  0  0  0  0  0  0  0  0  0  0
    0.2242    3.3495   -0.4876 H   0  0  0  0  0  0  0  0  0  0  0  0
    0.8915    0.4961   -1.1687 H   0  0  0  0  0  0  0  0  0  0  0  0
   -0.1971    1.6505   -1.9225 H   0  0  0  0  0  0  0  0  0  0  0  0
   -0.6813   -0.1888    0.4553 H   0  0  0  0  0  0  0  0  0  0  0  0
   -1.6308    0.0800   -1.0031 H   0  0  0  0  0  0  0  0  0  0  0  0
   -2.9917    0.1556    1.5504 H   0  0  0  0  0  0  0  0  0  0  0  0
   -3.5314    1.8060    1.6888 H   0  0  0  0  0  0  0  0  0  0  0  0
   -5.1621    1.3501    0.2830 H   0  0  0  0  0  0  0  0  0  0  0  0
   -2.9779    2.1671   -0.9766 H   0  0  0  0  0  0  0  0  0  0  0  0
   -3.5388   -0.9125   -0.9795 H   0  0  0  0  0  0  0  0  0  0  0  0
   -5.6473   -2.2848   -0.1635 H   0  0  0  0  0  0  0  0  0  0  0  0
   -6.0135   -0.8997    0.8375 H   0  0  0  0  0  0  0  0  0  0  0  0
   -5.4910   -1.3522    3.0760 H   0  0  0  0  0  0  0  0  0  0  0  0
   -4.0524   -2.3643    4.8020 H   0  0  0  0  0  0  0  0  0  0  0  0
   -2.0382   -3.6579    4.1507 H   0  0  0  0  0  0  0  0  0  0  0  0
   -1.4763   -3.9510    1.7506 H   0  0  0  0  0  0  0  0  0  0  0  0
   -2.9151   -2.9561    0.0056 H   0  0  0  0  0  0  0  0  0  0  0  0
   -6.9739    0.7478   -1.0935 H   0  0  0  0  0  0  0  0  0  0  0  0
   -8.3614    0.7072   -3.1230 H   0  0  0  0  0  0  0  0  0  0  0  0
   -7.6113   -0.5343   -5.1323 H   0  0  0  0  0  0  0  0  0  0  0  0
   -5.4440   -1.7364   -5.1068 H   0  0  0  0  0  0  0  0  0  0  0  0
   -4.0282   -1.7086   -3.0859 H   0  0  0  0  0  0  0  0  0  0  0  0
   -1.4577    3.1869    1.7681 H   0  0  0  0  0  0  0  0  0  0  0  0
   -1.2146    1.6108    2.5249 H   0  0  0  0  0  0  0  0  0  0  0  0
    0.9248    1.3539    1.7138 H   0  0  0  0  0  0  0  0  0  0  0  0
    0.8619    3.1030    1.9121 H   0  0  0  0  0  0  0  0  0  0  0  0
    4.5558    0.0328    1.0586 H   0  0  0  0  0  0  0  0  0  0  0  0
    6.8545    1.5736    1.0744 H   0  0  0  0  0  0  0  0  0  0  0  0
    6.2501   -0.7224    2.2965 H   0  0  0  0  0  0  0  0  0  0  0  0
    7.9117   -0.2034    2.0656 H   0  0  0  0  0  0  0  0  0  0  0  0
    6.4176   -2.1309    0.2264 H   0  0  0  0  0  0  0  0  0  0  0  0
    7.5978   -2.5948    1.4476 H   0  0  0  0  0  0  0  0  0  0  0  0
    8.3023   -2.2665   -1.0981 H   0  0  0  0  0  0  0  0  0  0  0  0
    9.4130   -1.8587    0.1994 H   0  0  0  0  0  0  0  0  0  0  0  0
    9.0109   -0.1351   -1.7603 H   0  0  0  0  0  0  0  0  0  0  0  0
    9.2275    0.4344   -0.1082 H   0  0  0  0  0  0  0  0  0  0  0  0
    7.2925    1.5498   -1.2261 H   0  0  0  0  0  0  0  0  0  0  0  0
    6.5403   -0.0169   -1.4846 H   0  0  0  0  0  0  0  0  0  0  0  0
  1  2  2  0
  2  3  1  0
  3  4  1  0
  4  5  1  0
  5  6  1  0
  6  7  1  0
  7  8  1  0
  8  9  1  0
  9 10  1  0
 10 11  1  0
 10 12  1  0
 12 13  1  0
 13 14  1  0
 14 15  2  0
 15 16  1  0
 16 17  2  0
 17 18  1  0
 18 19  2  0
 12 20  1  0
 20 21  2  0
 21 22  1  0
 22 23  2  0
 23 24  1  0
 24 25  2  0
  8 26  1  0
 26 27  1  0
  2 28  1  0
 28 29  1  0
 29 30  1  0
 30 31  1  0
 31 32  1  0
 32 33  1  0
 33 34  1  0
 27  5  1  0
 34 29  1  0
 19 14  1  0
 25 20  1  0
  3 35  1  0
  4 36  1  0
  4 37  1  0
  5 38  1  0
  6 39  1  0
  6 40  1  0
  7 41  1  0
  7 42  1  0
  9 43  1  0
  9 44  1  0
 10 45  1  0
 11 46  1  0
 12 47  1  0
 13 48  1  0
 13 49  1  0
 15 50  1  0
 16 51  1  0
 17 52  1  0
 18 53  1  0
 19 54  1  0
 21 55  1  0
 22 56  1  0
 23 57  1  0
 24 58  1  0
 25 59  1  0
 26 60  1  0
 26 61  1  0
 27 62  1  0
 27 63  1  0
 28 64  1  0
 29 65  1  0
 30 66  1  0
 30 67  1  0
 31 68  1  0
 31 69  1  0
 32 70  1  0
 32 71  1  0
 33 72  1  0
 33 73  1  0
 34 74  1  0
 34 75  1  0
M  END
$$$$
