
     RDKit          3D

 67 71  0  0  0  0  0  0  0  0999 V2000
    1.1803    0.8804   -2.1747 C   0  0  0  0  0  0  0  0  0  0  0  0
    1.2339    1.8115   -0.9670 C   0  0  0  0  0  0  0  0  0  0  0  0
    0.6992    1.2631    0.3752 C   0  0  0  0  0  0  0  0  0  0  0  0
    0.4023   -0.2383    0.4270 C   0  0  0  0  0  0  0  0  0  0  0  0
    0.1017   -0.7539    1.8411 C   0  0  0  0  0  0  0  0  0  0  0  0
   -1.0364   -0.0463    2.5788 C   0  0  0  0  0  0  0  0  0  0  0  0
   -2.2863    0.0016    1.8457 N   0  0  0  0  0  0  0  0  0  0  0  0
   -3.0444   -1.1385    1.6371 C   0  0  0  0  0  0  0  0  0  0  0  0
   -2.6472   -2.2483    1.9862 O   0  0  0  0  0  0  0  0  0  0  0  0
   -4.3067   -0.9039    1.1075 N   0  0  0  0  0  0  0  0  0  0  0  0
   -5.0575    0.2245    1.3377 C   0  0  0  0  0  0  0  0  0  0  0  0
   -4.6722    1.2787    1.8293 O   0  0  0  0  0  0  0  0  0  0  0  0
   -6.4599    0.0019    0.8439 C   0  0  0  0  0  0  0  0  0  0  0  0
   -6.8520    0.8866   -0.3556 C   0  0  0  0  0  0  0  0  0  0  0  0
   -8.3384    0.6306   -0.6682 C   0  0  0  0  0  0  0  0  0  0  0  0
   -8.3249   -0.7922   -1.2577 C   0  0  0  0  0  0  0  0  0  0  0  0
   -6.8315   -1.1679   -1.2220 C   0  0  0  0  0  0  0  0  0  0  0  0
   -6.1814    0.1822   -1.5379 C   0  0  0  0  0  0  0  0  0  0  0  0
   -6.4320   -1.4052    0.2481 C   0  0  0  0  0  0  0  0  0  0  0  0
   -5.0060   -1.8639    0.4177 C   0  0  0  0  0  0  0  0  0  0  0  0
   -4.5843   -2.8896   -0.0969 O   0  0  0  0  0  0  0  0  0  0  0  0
    2.5384    2.4617   -0.8282 N   0  0  0  0  0  0  0  0  0  0  0  0
    3.7551    1.9980   -0.4246 C   0  0  0  0  0  0  0  0  0  0  0  0
    4.6831    2.8089   -0.3742 O   0  0  0  0  0  0  0  0  0  0  0  0
    3.9106    0.5487    0.0312 C   0  0  0  0  0  0  0  0  0  0  0  0
    5.3215    0.1910    0.0879 N   0  0  0  0  0  0  0  0  0  0  0  0
    6.0389    0.4139    1.2385 C   0  0  0  0  0  0  0  0  0  0  0  0
    7.2939    0.1553    1.3887 N   0  0  0  0  0  0  0  0  0  0  0  0
    7.9876   -0.3574    0.2820 C   0  0  0  0  0  0  0  0  0  0  0  0
    9.3532   -0.6243    0.4091 C   0  0  0  0  0  0  0  0  0  0  0  0
   10.0823   -1.1287   -0.6714 C   0  0  0  0  0  0  0  0  0  0  0  0
    9.4497   -1.3728   -1.8904 C   0  0  0  0  0  0  0  0  0  0  0  0
    8.0866   -1.1122   -2.0308 C   0  0  0  0  0  0  0  0  0  0  0  0
    7.3665   -0.6041   -0.9440 C   0  0  0  0  0  0  0  0  0  0  0  0
    5.9242   -0.3096   -1.0558 C   0  0  0  0  0  0  0  0  0  0  0  0
    5.3237   -0.5156   -2.1066 O   0  0  0  0  0  0  0  0  0  0  0  0
    1.8115   -0.0020   -2.0600 H   0  0  0  0  0  0  0  0  0  0  0  0
    1.5279    1.4041   -3.0716 H   0  0  0  0  0  0  0  0  0  0  0  0
    0.1555    0.5451   -2.3638 H   0  0  0  0  0  0  0  0  0  0  0  0
    0.5742    2.6532   -1.2212 H   0  0  0  0  0  0  0  0  0  0  0  0
    1.3802    1.5338    1.1924 H   0  0  0  0  0  0  0  0  0  0  0  0
   -0.2358    1.7968    0.5961 H   0  0  0  0  0  0  0  0  0  0  0  0
    1.2596   -0.8056    0.0530 H   0  0  0  0  0  0  0  0  0  0  0  0
   -0.4437   -0.4686   -0.2320 H   0  0  0  0  0  0  0  0  0  0  0  0
   -0.1159   -1.8261    1.7703 H   0  0  0  0  0  0  0  0  0  0  0  0
    1.0106   -0.6703    2.4515 H   0  0  0  0  0  0  0  0  0  0  0  0
   -1.2211   -0.5464    3.5365 H   0  0  0  0  0  0  0  0  0  0  0  0
   -0.7556    0.9884    2.8013 H   0  0  0  0  0  0  0  0  0  0  0  0
   -2.8266    0.8583    1.9444 H   0  0  0  0  0  0  0  0  0  0  0  0
   -7.1561    0.0855    1.6852 H   0  0  0  0  0  0  0  0  0  0  0  0
   -6.5961    1.9423   -0.2442 H   0  0  0  0  0  0  0  0  0  0  0  0
   -8.9756    0.7031    0.2194 H   0  0  0  0  0  0  0  0  0  0  0  0
   -8.7095    1.3437   -1.4141 H   0  0  0  0  0  0  0  0  0  0  0  0
   -8.7004   -0.7768   -2.2877 H   0  0  0  0  0  0  0  0  0  0  0  0
   -8.9469   -1.4826   -0.6787 H   0  0  0  0  0  0  0  0  0  0  0  0
   -6.5622   -1.9794   -1.9016 H   0  0  0  0  0  0  0  0  0  0  0  0
   -6.4841    0.5886   -2.5097 H   0  0  0  0  0  0  0  0  0  0  0  0
   -5.0894    0.1718   -1.4833 H   0  0  0  0  0  0  0  0  0  0  0  0
   -7.0997   -2.0984    0.7701 H   0  0  0  0  0  0  0  0  0  0  0  0
    2.5925    3.4346   -1.1134 H   0  0  0  0  0  0  0  0  0  0  0  0
    3.4755    0.4527    1.0309 H   0  0  0  0  0  0  0  0  0  0  0  0
    3.3991   -0.1234   -0.6565 H   0  0  0  0  0  0  0  0  0  0  0  0
    5.4572    0.8364    2.0741 H   0  0  0  0  0  0  0  0  0  0  0  0
    9.8475   -0.4330    1.3587 H   0  0  0  0  0  0  0  0  0  0  0  0
   11.1454   -1.3282   -0.5587 H   0  0  0  0  0  0  0  0  0  0  0  0
   10.0197   -1.7635   -2.7309 H   0  0  0  0  0  0  0  0  0  0  0  0
    7.5906   -1.2997   -2.9797 H   0  0  0  0  0  0  0  0  0  0  0  0
  1  2  1  0
  2  3  1  0
  3  4  1  0
  4  5  1  0
  5  6  1  0
  6  7  1  0
  7  8  1  0
  8  9  2  0
  8 10  1  0
 10 11  1  0
 11 12  2  0
 11 13  1  0
 13 14  1  0
 14 15  1  0
 15 16  1  0
 16 17  1  0
 17 18  1  0
 17 19  1  0
 19 20  1  0
 20 21  2  0
  2 22  1  0
 22 23  1  0
 23 24  2  0
 23 25  1  0
 25 26  1  0
 26 27  1  0
 27 28  2  0
 28 29  1  0
 29 30  2  0
 30 31  1  0
 31 32  2  0
 32 33  1  0
 33 34  2  0
 34 35  1  0
 35 36  2  0
 20 10  1  0
 35 26  1  0
 19 13  1  0
 34 29  1  0
 18 14  1  0
  1 37  1  0
  1 38  1  0
  1 39  1  0
  2 40  1  0
  3 41  1  0
  3 42  1  0
  4 43  1  0
  4 44  1  0
  5 45  1  0
  5 46  1  0
  6 47  1  0
  6 48  1  0
  7 49  1  0
 13 50  1  0
 14 51  1  0
 15 52  1  0
 15 53  1  0
 16 54  1  0
 16 55  1  0
 17 56  1  0
 18 57  1  0
 18 58  1  0
 19 59  1  0
 22 60  1  0
 25 61  1  0
 25 62  1  0
 27 63  1  0
 30 64  1  0
 31 65  1  0
 32 66  1  0
 33 67  1  0
M  END
$$$$
