
     RDKit          3D

 67 70  0  0  0  0  0  0  0  0999 V2000
    5.4115    2.5703    0.1763 C   0  0  0  0  0  0  0  0  0  0  0  0
    5.2634    1.3092   -0.6889 C   0  0  0  0  0  0  0  0  0  0  0  0
    5.7549    1.6277   -2.1083 C   0  0  0  0  0  0  0  0  0  0  0  0
    6.0729    0.1465   -0.0971 C   0  0  0  0  0  0  0  0  0  0  0  0
    5.4812   -0.3226    1.2155 C   0  0  0  0  0  0  0  0  0  0  0  0
    6.0544   -0.0320    2.2715 O   0  0  0  0  0  0  0  0  0  0  0  0
    4.1856   -1.1661    1.1765 C   0  0  0  0  0  0  0  0  0  0  0  0
    2.9098   -0.5788    1.8313 C   0  0  0  0  0  0  0  0  0  0  0  0
    2.0834   -1.3234    0.7516 C   0  0  0  0  0  0  0  0  0  0  0  0
    0.8198   -0.6436    0.2354 C   0  0  0  0  0  0  0  0  0  0  0  0
   -0.3534   -0.7351    1.1895 C   0  0  0  0  0  0  0  0  0  0  0  0
   -0.2482   -1.0701    2.3634 O   0  0  0  0  0  0  0  0  0  0  0  0
   -1.5539   -0.4127    0.6038 N   0  0  0  0  0  0  0  0  0  0  0  0
   -2.7831   -0.2912    1.3934 C   0  0  0  0  0  0  0  0  0  0  0  0
   -2.9055    1.0838    2.0884 C   0  0  0  0  0  0  0  0  0  0  0  0
   -2.4920    2.2665    1.2365 C   0  0  0  0  0  0  0  0  0  0  0  0
   -3.3827    2.8535    0.3285 C   0  0  0  0  0  0  0  0  0  0  0  0
   -2.9683    3.9101   -0.4835 C   0  0  0  0  0  0  0  0  0  0  0  0
   -1.6651    4.3968   -0.3900 C   0  0  0  0  0  0  0  0  0  0  0  0
   -0.7787    3.8356    0.5252 C   0  0  0  0  0  0  0  0  0  0  0  0
   -1.1889    2.7767    1.3345 C   0  0  0  0  0  0  0  0  0  0  0  0
   -4.0183   -0.6525    0.5301 C   0  0  0  0  0  0  0  0  0  0  0  0
   -5.0256    0.0600    0.4752 O   0  0  0  0  0  0  0  0  0  0  0  0
   -4.0070   -1.8422   -0.1759 N   0  0  0  0  0  0  0  0  0  0  0  0
   -3.0697   -2.9378    0.0501 C   0  0  0  0  0  0  0  0  0  0  0  0
   -3.8875   -4.1940   -0.1997 C   0  0  0  0  0  0  0  0  0  0  0  0
   -4.8289   -3.7599   -1.3080 C   0  0  0  0  0  0  0  0  0  0  0  0
   -5.1900   -2.3183   -0.9230 C   0  0  0  0  0  0  0  0  0  0  0  0
   -5.5887   -1.5114   -2.1735 C   0  0  0  0  0  0  0  0  0  0  0  0
   -5.8753   -2.0194   -3.2513 O   0  0  0  0  0  0  0  0  0  0  0  0
   -5.7305   -0.1797   -1.9663 O   0  0  0  0  0  0  0  0  0  0  0  0
    3.3634   -1.2909   -0.1416 C   0  0  0  0  0  0  0  0  0  0  0  0
    3.4768   -0.1896   -1.2249 C   0  0  0  0  0  0  0  0  0  0  0  0
    3.2398   -0.3446   -2.4189 O   0  0  0  0  0  0  0  0  0  0  0  0
    3.8444    1.0248   -0.7260 O   0  0  0  0  0  0  0  0  0  0  0  0
    4.8467    3.4047   -0.2558 H   0  0  0  0  0  0  0  0  0  0  0  0
    6.4598    2.8727    0.2711 H   0  0  0  0  0  0  0  0  0  0  0  0
    5.0008    2.4153    1.1803 H   0  0  0  0  0  0  0  0  0  0  0  0
    5.1314    2.4014   -2.5710 H   0  0  0  0  0  0  0  0  0  0  0  0
    5.6951    0.7472   -2.7578 H   0  0  0  0  0  0  0  0  0  0  0  0
    6.7945    1.9740   -2.1046 H   0  0  0  0  0  0  0  0  0  0  0  0
    7.1187    0.4364    0.0670 H   0  0  0  0  0  0  0  0  0  0  0  0
    6.0963   -0.7200   -0.7695 H   0  0  0  0  0  0  0  0  0  0  0  0
    4.4051   -2.1664    1.5840 H   0  0  0  0  0  0  0  0  0  0  0  0
    2.8425    0.5147    1.7867 H   0  0  0  0  0  0  0  0  0  0  0  0
    2.7256   -0.8970    2.8616 H   0  0  0  0  0  0  0  0  0  0  0  0
    1.8533   -2.3584    1.0498 H   0  0  0  0  0  0  0  0  0  0  0  0
    0.5233   -1.1178   -0.7091 H   0  0  0  0  0  0  0  0  0  0  0  0
    1.0009    0.4189    0.0330 H   0  0  0  0  0  0  0  0  0  0  0  0
   -1.5311    0.0905   -0.2772 H   0  0  0  0  0  0  0  0  0  0  0  0
   -2.7606   -1.0388    2.1964 H   0  0  0  0  0  0  0  0  0  0  0  0
   -2.2730    1.0764    2.9867 H   0  0  0  0  0  0  0  0  0  0  0  0
   -3.9250    1.2434    2.4602 H   0  0  0  0  0  0  0  0  0  0  0  0
   -4.4094    2.5001    0.2513 H   0  0  0  0  0  0  0  0  0  0  0  0
   -3.6589    4.3550   -1.1936 H   0  0  0  0  0  0  0  0  0  0  0  0
   -1.3450    5.2204   -1.0229 H   0  0  0  0  0  0  0  0  0  0  0  0
    0.2334    4.2218    0.6098 H   0  0  0  0  0  0  0  0  0  0  0  0
   -0.4817    2.3495    2.0435 H   0  0  0  0  0  0  0  0  0  0  0  0
   -2.2650   -2.8427   -0.6863 H   0  0  0  0  0  0  0  0  0  0  0  0
   -2.6483   -2.9323    1.0574 H   0  0  0  0  0  0  0  0  0  0  0  0
   -4.4629   -4.4520    0.6968 H   0  0  0  0  0  0  0  0  0  0  0  0
   -3.2710   -5.0537   -0.4728 H   0  0  0  0  0  0  0  0  0  0  0  0
   -4.3013   -3.7999   -2.2689 H   0  0  0  0  0  0  0  0  0  0  0  0
   -5.7121   -4.4004   -1.3850 H   0  0  0  0  0  0  0  0  0  0  0  0
   -6.0452   -2.3157   -0.2356 H   0  0  0  0  0  0  0  0  0  0  0  0
   -5.5942    0.0734   -1.0207 H   0  0  0  0  0  0  0  0  0  0  0  0
    3.5379   -2.2665   -0.6216 H   0  0  0  0  0  0  0  0  0  0  0  0
  1  2  1  0
  2  3  1  0
  2  4  1  0
  4  5  1  0
  5  6  2  0
  5  7  1  0
  7  8  1  0
  8  9  1  0
  9 10  1  0
 10 11  1  0
 11 12  2  0
 11 13  1  0
 13 14  1  0
 14 15  1  0
 15 16  1  0
 16 17  2  0
 17 18  1  0
 18 19  2  0
 19 20  1  0
 20 21  2  0
 14 22  1  0
 22 23  2  0
 22 24  1  0
 24 25  1  0
 25 26  1  0
 26 27  1  0
 27 28  1  0
 28 29  1  0
 29 30  2  0
 29 31  1  0
  9 32  1  0
 32 33  1  0
 33 34  2  0
 33 35  1  0
 35  2  1  0
 32  7  1  0
 21 16  1  0
 28 24  1  0
  1 36  1  0
  1 37  1  0
  1 38  1  0
  3 39  1  0
  3 40  1  0
  3 41  1  0
  4 42  1  0
  4 43  1  0
  7 44  1  0
  8 45  1  0
  8 46  1  0
  9 47  1  0
 10 48  1  0
 10 49  1  0
 13 50  1  0
 14 51  1  0
 15 52  1  0
 15 53  1  0
 17 54  1  0
 18 55  1  0
 19 56  1  0
 20 57  1  0
 21 58  1  0
 25 59  1  0
 25 60  1  0
 26 61  1  0
 26 62  1  0
 27 63  1  0
 27 64  1  0
 28 65  1  0
 31 66  1  0
 32 67  1  0
M  END
$$$$
