@<TRIPOS>MOLECULE
6y2f_ligand_n.pdb
 43 46 0 0 0
SMALL
GASTEIGER

@<TRIPOS>ATOM
      1  O26       11.8310   -5.7920   23.3410 O.2   502  O6K502     -0.2242
      2  C24       11.0550   -5.5200   22.4390 C.2   502  O6K502      0.4250
      3  O25       10.7940   -6.4860   21.3880 O.3   502  O6K502     -0.4406
      4  C27       11.5920   -7.6490   21.1000 C.3   502  O6K502      0.1379
      5  C31       11.5660   -8.5610   22.3390 C.3   502  O6K502      0.0437
      6  C32       11.0030   -8.3630   19.8740 C.3   502  O6K502      0.0437
      7  C33       13.0340   -7.2520   20.7560 C.3   502  O6K502      0.0437
      8  N23       10.3770   -4.3740   22.3180 N.am  502  O6K502     -0.1419
      9  C19       10.5110   -3.2570   23.0710 C.2   502  O6K502      0.1124
     10  C21        9.7760   -2.0760   22.5880 C.2   502  O6K502      0.2649
     11  O22        9.0710   -2.1270   21.5350 O.2   502  O6K502     -0.2685
     12  C18       11.3120   -3.1340   24.2230 C.3   502  O6K502      0.0754
     13  C17       11.3910   -1.9230   24.8800 C.2   502  O6K502     -0.0037
     14  C16       10.6670   -0.8270   24.4220 C.2   502  O6K502      0.0640
     15  N15        9.8740   -0.8790   23.3250 N.am  502  O6K502     -0.2465
     16  C20        9.1480    0.2790   22.8020 C.3   502  O6K502      0.1578
     17  C22        9.0030    1.4310   23.8060 C.3   502  O6K502      0.0296
     18  C29        8.2040    0.9910   25.0350 C.3   502  O6K502      0.0022
     19  C34        7.4620    2.0420   25.8550 C.3   502  O6K502      0.0001
     20  C30        6.6840    1.1640   24.8830 C.3   502  O6K502      0.0001
     21  C36        9.9080    0.7110   21.5760 C.2   502  O6K502      0.2598
     22  O37       11.1280    0.5540   21.5190 O.2   502  O6K502     -0.2715
     23  N38        9.1950    1.2700   20.5840 N.am  502  O6K502     -0.2026
     24  C40        9.7960    1.7920   19.3960 C.3   502  O6K502      0.1351
     25  C42        9.2500    1.1520   18.0800 C.3   502  O6K502      0.0340
     26  C45        9.7730   -0.2500   17.9890 C.3   502  O6K502      0.0818
     27  C47        9.1970   -1.1410   16.9100 C.2   502  O6K502      0.2410
     28  O48        8.0040   -1.1510   16.6210 O.2   502  O6K502     -0.2734
     29  N49       10.1730   -1.9110   16.4000 N.am  502  O6K502     -0.2054
     30  C51       11.4690   -1.7050   17.0560 C.3   502  O6K502      0.1156
     31  C54       11.2780   -0.3410   17.7080 C.3   502  O6K502      0.0326
     32  C57        9.6010    3.2860   19.6300 C.3   502  O6K502      0.2487
     33  O40        9.9190    3.7620   20.9920 O.3   502  O6K502     -0.2113
     34  C35       10.5540    4.0440   18.7970 C.2   502  O6K502      0.2739
     35  O41       10.4780    3.8830   17.5930 O.2   502  O6K502     -0.2705
     36  N36       11.3560    4.8660   19.5340 N.am  502  O6K502     -0.1984
     37  C13       12.3700    5.7700   18.9920 C.3   502  O6K502      0.1415
     38  C14       13.7300    5.0870   18.9150 C.ar  502  O6K502     -0.0006
     39  C28       13.9370    3.8120   19.4420 C.ar  502  O6K502     -0.0026
     40  C26       15.1980    3.2150   19.3710 C.ar  502  O6K502     -0.0003
     41  C25       16.2670    3.8900   18.7680 C.ar  502  O6K502     -0.0000
     42  C23       16.0700    5.1660   18.2380 C.ar  502  O6K502     -0.0003
     43  C15       14.8050    5.7570   18.3140 C.ar  502  O6K502     -0.0026
@<TRIPOS>BOND
     1    29    27   am
     2    29    30    1
     3    28    27    2
     4    27    26    1
     5    30    31    1
     6    35    34    2
     7    31    26    1
     8    26    25    1
     9    25    24    1
    10    42    43   ar
    11    42    41   ar
    12    43    38   ar
    13    41    40   ar
    14    34    36   am
    15    34    32    1
    16    38    37    1
    17    38    39   ar
    18    37    36    1
    19    40    39   ar
    20    24    32    1
    21    24    23    1
    22    32    33    1
    23     6     4    1
    24    23    21   am
    25     7     4    1
    26     4     3    1
    27     4     5    1
    28     3     2    1
    29    22    21    2
    30    11    10    2
    31    21    16    1
    32     8     2    1
    33     8     9    2
    34     2     1    2
    35    10     9    1
    36    10    15   am
    37    16    15    1
    38    16    17    1
    39     9    12    1
    40    15    14    1
    41    17    18    1
    42    12    13    1
    43    14    13    2
    44    20    18    1
    45    20    19    1
    46    18    19    1
